[TITLE]
;;Project Title/Notes

[OPTIONS]
;;Option             Value
FLOW_UNITS           LPS
INFILTRATION         HORTON
FLOW_ROUTING         DYNWAVE
LINK_OFFSETS         DEPTH
MIN_SLOPE            0
ALLOW_PONDING        NO
SKIP_STEADY_STATE    YES

START_DATE           05/31/2015
START_TIME           23:59:00
REPORT_START_DATE    05/31/2015
REPORT_START_TIME    23:59:00
END_DATE             07/01/2015
END_TIME             00:00:00
SWEEP_START          01/01
SWEEP_END            12/31
DRY_DAYS             0
REPORT_STEP          00:00:30
WET_STEP             00:00:30
DRY_STEP             00:01:00
ROUTING_STEP         0:00:30 

INERTIAL_DAMPING     PARTIAL
NORMAL_FLOW_LIMITED  BOTH
FORCE_MAIN_EQUATION  D-W
VARIABLE_STEP        0.75
LENGTHENING_STEP     0
MIN_SURFAREA         1.14
MAX_TRIALS           8
HEAD_TOLERANCE       0.0015
SYS_FLOW_TOL         5
LAT_FLOW_TOL         5
MINIMUM_STEP         0.5
THREADS              4

[EVAPORATION]
;;Data Source    Parameters
;;-------------- ----------------
CONSTANT         0.0
DRY_ONLY         NO

[RAINGAGES]
;;Name           Format    Interval SCF      Source    
;;-------------- --------- ------ ------ ----------
Raingage         VOLUME    0:01     1.0      FILE       "rain2015.dat"   STA01      MM   

[SUBCATCHMENTS]
;;Name           Rain Gage        Outlet           Area     %Imperv  Width    %Slope   CurbLen  SnowPack        
;;-------------- ---------------- ---------------- -------- -------- -------- -------- -------- ----------------
S1_G_R_          Raingage         not_connected    0.02771  0        16.646   4.661    0                        
S1_H_R_          Raingage         I20              0.03228  100      33.428   4.661    0                        
S1_A_R_          Raingage         not_connected    0.013518 100      11.627   4.661    0                        
S10_G_R_         Raingage         not_connected    0.035451 0        18.829   5.151    0                        
S10_H_R_         Raingage         I20              0.029344 100      31.872   5.151    0                        
S10_A_R_         Raingage         not_connected    0.001916 100      4.377    5.151    0                        
S11_G_R_         Raingage         not_connected    0.048278 0        21.972   8.66     0                        
S11_H_R_         Raingage         I23              0.016669 100      24.02    8.66     0                        
S11_A_R_         Raingage         not_connected    6.3E-05  100      0.794    8.66     0                        
S12_G_R_         Raingage         not_connected    0.050995 0        22.582   6.206    0                        
S12_H_R_         Raingage         not_connected    0        100      0        6.206    0                        
S12_A_R_         Raingage         not_connected    0        100      0        6.206    0                        
S13_G_R_         Raingage         not_connected    0.050931 0        22.568   4.402    0                        
S13_H_R_         Raingage         not_connected    0        100      0        4.402    0                        
S13_A_R_         Raingage         not_connected    0        100      0        4.402    0                        
S14_G_M_         Raingage         not_connected    0.051003 0        22.584   4.376    0                        
S14_H_M_         Raingage         not_connected    0        100      0        4.376    0                        
S14_A_M_         Raingage         not_connected    0        100      0        4.376    0                        
S15_G_R_         Raingage         not_connected    0.052004 0        22.804   4.453    0                        
S15_H_R_         Raingage         not_connected    0        100      0        4.453    0                        
S15_A_R_         Raingage         not_connected    0        100      0        4.453    0                        
S16_G_R_         Raingage         not_connected    0.051995 0        22.803   5.544    0                        
S16_H_R_         Raingage         not_connected    0        100      0        5.544    0                        
S16_A_R_         Raingage         not_connected    0        100      0        5.544    0                        
S17_G_R_         Raingage         not_connected    0.052007 0        22.805   7.315    0                        
S17_H_R_         Raingage         not_connected    0        100      0        7.315    0                        
S17_A_R_         Raingage         not_connected    0        100      0        7.315    0                        
S18_G_R_         Raingage         not_connected    0.051996 0        22.803   5.802    0                        
S18_H_R_         Raingage         not_connected    0        100      0        5.802    0                        
S18_A_R_         Raingage         not_connected    0        100      0        5.802    0                        
S19_G_R_         Raingage         not_connected    0.056327 0        23.733   4.827    0                        
S19_H_R_         Raingage         I18              0.027112 100      30.634   4.827    0                        
S19_A_R_         Raingage         not_connected    0.009979 100      9.99     4.827    0                        
S2_G_R_          Raingage         not_connected    0.017044 0        13.055   6.502    0                        
S2_H_R_          Raingage         I23              0.035615 100      35.112   6.502    0                        
S2_A_R_          Raingage         not_connected    0.014965 100      12.233   6.502    0                        
S20_G_R_         Raingage         not_connected    0.0567   0        23.812   4.141    0                        
S20_H_R_         Raingage         not_connected    0        100      0        4.141    0                        
S20_A_R_         Raingage         not_connected    0        100      0        4.141    0                        
S21_G_R_         Raingage         not_connected    0.020488 0        14.313   6.461    0                        
S21_H_R_         Raingage         I10              0.016905 100      24.192   6.461    0                        
S21_A_R_         Raingage         not_connected    0.002105 100      4.589    6.461    0                        
S22_G_R_         Raingage         not_connected    0.011759 0        10.844   3.928    0                        
S22_H_R_         Raingage         I11              0.014638 100      22.51    3.928    0                        
S22_A_R_         Raingage         not_connected    0.001305 100      3.612    3.928    0                        
S23_G_R_         Raingage         not_connected    0.011271 0        10.616   4.499    0                        
S23_H_R_         Raingage         I11              0.014564 100      22.452   4.499    0                        
S23_A_R_         Raingage         not_connected    0.001845 100      4.296    4.499    0                        
S24_G_R_         Raingage         not_connected    0.020339 0        14.261   3.746    0                        
S24_H_R_         Raingage         I11              0.019409 100      25.92    3.746    0                        
S24_A_R_         Raingage         not_connected    0.002023 100      4.498    3.746    0                        
S25_G_R_         Raingage         not_connected    0.032489 0        18.025   6.495    0                        
S25_H_R_         Raingage         I13              0.028175 100      31.23    6.495    0                        
S25_A_R_         Raingage         not_connected    0.002609 100      5.108    6.495    0                        
S26_G_R_         Raingage         not_connected    0.058594 0        24.206   4.38     0                        
S26_H_R_         Raingage         not_connected    0.000144 100      1.2      4.38     0                        
S26_A_R_         Raingage         not_connected    3.6E-05  100      0.6      4.38     0                        
S27_G_M_         Raingage         not_connected    0.241255 0        49.118   6.523    0                        
S27_H_M_         Raingage         I8               0.187841 100      93.11    6.523    0                        
S27_A_M_         Raingage         not_connected    0.141967 100      37.678   6.523    0                        
S28_G_R_         Raingage         not_connected    0.211379 0        45.976   6.732    0                        
S28_H_R_         Raingage         I13              0.23297  100      48.267   6.732    0                        
S28_A_R_         Raingage         not_connected    0.074969 100      27.38    6.732    0                        
S29_G_R_         Raingage         not_connected    0.266    5.467    5.359    4.482    0                        
S29_H_R_         Raingage         I13              0.027034 25       30.54    0.5      0                        
S29_A_R_         Raingage         not_connected    0.09499  5.467    31.985   4.482    0                        
S3_G_R_          Raingage         not_connected    0.043555 0        20.87    5.81     0                        
S3_H_R_          Raingage         I18              0.028213 100      31.25    5.81     0                        
S3_A_R_          Raingage         not_connected    0.006491 100      8.057    5.81     0                        
S30_G_R_         Raingage         not_connected    0.00279  0        5.282    4.099    0                        
S30_H_R_         Raingage         I13              0.008694 100      17.348   4.099    0                        
S30_A_R_         Raingage         not_connected    0.004518 100      6.722    4.099    0                        
S31_G_R_         Raingage         not_connected    0.004174 0        6.461    6.773    0                        
S31_H_R_         Raingage         I13              0.008585 100      17.24    6.773    0                        
S31_A_R_         Raingage         not_connected    0.003211 100      5.667    6.773    0                        
S32_G_R_         Raingage         not_connected    0.004312 0        6.567    5.884    0                        
S32_H_R_         Raingage         I13              0.008655 100      17.31    5.884    0                        
S32_A_R_         Raingage         not_connected    0.003016 100      5.492    5.884    0                        
S33_G_R_         Raingage         not_connected    0.003295 0        5.741    4.647    0                        
S33_H_R_         Raingage         I13              0.009355 100      17.994   4.647    0                        
S33_A_R_         Raingage         not_connected    0.003431 100      5.857    4.647    0                        
S35_G_R_         Raingage         not_connected    0.00027  0        1.643    3.839    0                        
S34_G_R_         Raingage         not_connected    0.002248 0        4.742    4.517    0                        
S34_H_R_         Raingage         I6               0.008668 100      17.322   4.517    0                        
S34_A_R_         Raingage         not_connected    0.005063 100      7.116    4.517    0                        
S35_H_R_         Raingage         I6               0.008984 100      17.636   3.839    0                        
S35_A_R_         Raingage         not_connected    0.006768 100      8.227    3.839    0                        
S36_G_R_         Raingage         not_connected    0.011542 0        10.743   11.059   0                        
S36_H_R_         Raingage         I6               0.011205 100      19.694   11.059   0                        
S36_A_R_         Raingage         not_connected    0.012721 100      11.279   11.059   0                        
S37_G_R_         Raingage         not_connected    0.011211 0        10.588   12.244   0                        
S37_H_R_         Raingage         I9               0.018304 100      25.172   12.244   0                        
S37_A_R_         Raingage         not_connected    0.018785 100      13.706   12.244   0                        
S38_G_R_         Raingage         not_connected    0.013728 0        11.717   16.512   0                        
S38_H_R_         Raingage         I16              0.011331 100      19.804   16.512   0                        
S38_A_R_         Raingage         not_connected    0.000315 100      1.774    16.512   0                        
S39_G_R_         Raingage         not_connected    0.006331 0        7.957    13.292   0                        
S39_H_R_         Raingage         I16              0.009197 100      17.842   13.292   0                        
S39_A_R_         Raingage         not_connected    4.5E-05  100      0.671    13.292   0                        
S4_G_R_          Raingage         not_connected    0.030869 0        17.57    6.049    0                        
S4_H_R_          Raingage         I19              0.031945 100      33.254   6.049    0                        
S4_A_R_          Raingage         not_connected    0.009752 100      9.875    6.049    0                        
S40_G_R_         Raingage         not_connected    0.006235 0        7.896    12.598   0                        
S40_H_R_         Raingage         I16              0.009214 100      17.858   12.598   0                        
S40_A_R_         Raingage         not_connected    0.000117 100      1.082    12.598   0                        
S41_G_R_         Raingage         not_connected    0.006136 0        7.833    13.747   0                        
S41_H_R_         Raingage         I16              0.009406 100      18.044   13.747   0                        
S41_A_R_         Raingage         not_connected    9.9E-05  100      0.994    13.747   0                        
S42_G_R_         Raingage         not_connected    0.006396 0        7.997    13.714   0                        
S42_H_R_         Raingage         I16              0.009129 100      17.776   13.714   0                        
S42_A_R_         Raingage         not_connected    8.1E-05  100      0.9      13.714   0                        
S43_G_R_         Raingage         not_connected    0.006646 0        8.152    16.697   0                        
S43_H_R_         Raingage         I9               0.009884 100      18.496   16.697   0                        
S43_A_R_         Raingage         not_connected    0.00071  100      2.666    16.697   0                        
S44_G_R_         Raingage         not_connected    0.023057 0        15.185   7.505    0                        
S44_H_R_         Raingage         I17              0.027091 100      30.622   7.505    0                        
S44_A_R_         Raingage         not_connected    0.009252 100      9.619    7.505    0                        
S45_G_R_         Raingage         not_connected    0.027955 0        16.72    7.158    0                        
S45_H_R_         Raingage         I17              0.026493 100      30.282   7.158    0                        
S45_A_R_         Raingage         not_connected    0.007819 100      8.842    7.158    0                        
S5_G_R_          Raingage         not_connected    0.015363 0        12.395   10.054   0                        
S5_H_R_          Raingage         I20              0.019583 100      26.036   10.054   0                        
S5_A_R_          Raingage         not_connected    0.000801 100      2.83     10.054   0                        
S6_G_R_          Raingage         not_connected    0.06513  0        25.521   4.133    0                        
S6_H_R_          Raingage         not_connected    0.000126 100      1.123    4.133    0                        
S6_A_R_          Raingage         not_connected    9E-05    100      0.949    4.133    0                        
S7_G_R_          Raingage         not_connected    0.015184 0        12.322   4.981    0                        
S7_H_R_          Raingage         I20              0.01218  100      20.532   4.981    0                        
S7_A_R_          Raingage         not_connected    0.000828 100      2.878    4.981    0                        
S8_G_R_          Raingage         not_connected    0        0        0        12.83    0                        
S8_H_R_          Raingage         I19              2.1E-05  100      0.848    12.83    0                        
S8_A_R_          Raingage         not_connected    0.006356 100      7.972    12.83    0                        
S9_G_R_          Raingage         not_connected    0.032152 0        17.931   5.746    0                        
S9_H_R_          Raingage         I18              0.030997 100      32.756   5.746    0                        
S9_A_R_          Raingage         not_connected    0.006353 100      7.971    5.746    0                        
V_1              Raingage         not_connected    0.138048 7.828    37.155   8.881    0                        
V_10             Raingage         I10              0.013594 9.053    38.261   3.364    0                        
V_11             Raingage         I17              0.019362 9.598    45.663   4.093    0                        
V_12             Raingage         I7               0.020966 9.598    47.518   4.093    0                        
V_13             Raingage         I7               0.000322 9.598    5.892    4.093    0                        
V_2              Raingage         not_connected    0.055015 7.828    23.455   8.881    0                        
V_3              Raingage         not_connected    0.134852 7.828    36.722   8.881    0                        
V_4              Raingage         I23              0.002118 8.832    15.104   4.572    0                        
V_5              Raingage         I22              0.008472 8.832    30.206   4.572    0                        
V_6              Raingage         I18              0.018304 8.832    44.398   4.572    0                        
V_7              Raingage         I13              0.021828 9.053    48.484   3.364    0                        
V_8              Raingage         I12              0.000584 9.053    7.932    3.364    0                        
V_9              Raingage         I12              7.8E-05  9.053    2.909    3.364    0                        

[SUBAREAS]
;;Subcatchment   N-Imperv   N-Perv     S-Imperv   S-Perv     PctZero    RouteTo    PctRouted 
;;-------------- ---------- ---------- ---------- ---------- ---------- ---------- ----------
S1_G_R_          0.014      0.15       2.54       5          0          OUTLET    
S1_H_R_          0.014      0.15       1.27       5          0          OUTLET    
S1_A_R_          0.014      0.15       2.54       5          0          OUTLET    
S10_G_R_         0.014      0.15       2.54       5          0          OUTLET    
S10_H_R_         0.014      0.15       1.27       5          0          OUTLET    
S10_A_R_         0.014      0.15       2.54       5          0          OUTLET    
S11_G_R_         0.014      0.15       2.54       5          0          OUTLET    
S11_H_R_         0.014      0.15       1.27       5          0          OUTLET    
S11_A_R_         0.014      0.15       2.54       5          0          OUTLET    
S12_G_R_         0.014      0.15       2.54       5          0          OUTLET    
S12_H_R_         0.014      0.15       1.27       5          0          OUTLET    
S12_A_R_         0.014      0.15       2.54       5          0          OUTLET    
S13_G_R_         0.014      0.15       2.54       5          0          OUTLET    
S13_H_R_         0.014      0.15       1.27       5          0          OUTLET    
S13_A_R_         0.014      0.15       2.54       5          0          OUTLET    
S14_G_M_         0.014      0.15       2.54       5          0          OUTLET    
S14_H_M_         0.014      0.15       1.27       5          0          OUTLET    
S14_A_M_         0.014      0.15       2.54       5          0          OUTLET    
S15_G_R_         0.014      0.15       2.54       5          0          OUTLET    
S15_H_R_         0.014      0.15       1.27       5          0          OUTLET    
S15_A_R_         0.014      0.15       2.54       5          0          OUTLET    
S16_G_R_         0.014      0.15       2.54       5          0          OUTLET    
S16_H_R_         0.014      0.15       1.27       5          0          OUTLET    
S16_A_R_         0.014      0.15       2.54       5          0          OUTLET    
S17_G_R_         0.014      0.15       2.54       5          0          OUTLET    
S17_H_R_         0.014      0.15       1.27       5          0          OUTLET    
S17_A_R_         0.014      0.15       2.54       5          0          OUTLET    
S18_G_R_         0.014      0.15       2.54       5          0          OUTLET    
S18_H_R_         0.014      0.15       1.27       5          0          OUTLET    
S18_A_R_         0.014      0.15       2.54       5          0          OUTLET    
S19_G_R_         0.014      0.15       2.54       5          0          OUTLET    
S19_H_R_         0.014      0.15       1.27       5          0          OUTLET    
S19_A_R_         0.014      0.15       2.54       5          0          OUTLET    
S2_G_R_          0.014      0.15       2.54       5          0          OUTLET    
S2_H_R_          0.014      0.15       1.27       5          0          OUTLET    
S2_A_R_          0.014      0.15       2.54       5          0          OUTLET    
S20_G_R_         0.014      0.15       2.54       5          0          OUTLET    
S20_H_R_         0.014      0.15       1.27       5          0          OUTLET    
S20_A_R_         0.014      0.15       2.54       5          0          OUTLET    
S21_G_R_         0.014      0.15       2.54       5          0          OUTLET    
S21_H_R_         0.014      0.15       1.27       5          0          OUTLET    
S21_A_R_         0.014      0.15       2.54       5          0          OUTLET    
S22_G_R_         0.014      0.15       2.54       5          0          OUTLET    
S22_H_R_         0.014      0.15       1.27       5          0          OUTLET    
S22_A_R_         0.014      0.15       2.54       5          0          OUTLET    
S23_G_R_         0.014      0.15       2.54       5          0          OUTLET    
S23_H_R_         0.014      0.15       1.27       5          0          OUTLET    
S23_A_R_         0.014      0.15       2.54       5          0          OUTLET    
S24_G_R_         0.014      0.15       2.54       5          0          OUTLET    
S24_H_R_         0.014      0.15       1.27       5          0          OUTLET    
S24_A_R_         0.014      0.15       2.54       5          0          OUTLET    
S25_G_R_         0.014      0.15       2.54       5          0          OUTLET    
S25_H_R_         0.014      0.15       1.27       5          0          OUTLET    
S25_A_R_         0.014      0.15       2.54       5          0          OUTLET    
S26_G_R_         0.014      0.15       2.54       5          0          OUTLET    
S26_H_R_         0.014      0.15       1.27       5          0          OUTLET    
S26_A_R_         0.014      0.15       2.54       5          0          OUTLET    
S27_G_M_         0.014      0.15       2.54       5          0          OUTLET    
S27_H_M_         0.014      0.15       1.27       5          0          OUTLET    
S27_A_M_         0.014      0.15       2.54       5          0          OUTLET    
S28_G_R_         0.014      0.15       2.54       5          0          OUTLET    
S28_H_R_         0.014      0.15       1.27       5          0          OUTLET    
S28_A_R_         0.014      0.15       2.54       5          0          OUTLET    
S29_G_R_         0.013      0.15       1.9        5          0          OUTLET    
S29_H_R_         0.01       0.1        0.05       0.05       25         OUTLET    
S29_A_R_         0.013      0.15       1.9        5          0          OUTLET    
S3_G_R_          0.014      0.15       2.54       5          0          OUTLET    
S3_H_R_          0.014      0.15       1.27       5          0          OUTLET    
S3_A_R_          0.014      0.15       2.54       5          0          OUTLET    
S30_G_R_         0.014      0.15       2.54       5          0          OUTLET    
S30_H_R_         0.014      0.15       1.27       5          0          OUTLET    
S30_A_R_         0.014      0.15       2.54       5          0          OUTLET    
S31_G_R_         0.014      0.15       2.54       5          0          OUTLET    
S31_H_R_         0.014      0.15       1.27       5          0          OUTLET    
S31_A_R_         0.014      0.15       2.54       5          0          OUTLET    
S32_G_R_         0.014      0.15       2.54       5          0          OUTLET    
S32_H_R_         0.014      0.15       1.27       5          0          OUTLET    
S32_A_R_         0.014      0.15       2.54       5          0          OUTLET    
S33_G_R_         0.014      0.15       2.54       5          0          OUTLET    
S33_H_R_         0.014      0.15       1.27       5          0          OUTLET    
S33_A_R_         0.014      0.15       2.54       5          0          OUTLET    
S35_G_R_         0.014      0.15       2.54       5          0          OUTLET    
S34_G_R_         0.014      0.15       2.54       5          0          OUTLET    
S34_H_R_         0.014      0.15       1.27       5          0          OUTLET    
S34_A_R_         0.014      0.15       2.54       5          0          OUTLET    
S35_H_R_         0.014      0.15       1.27       5          0          OUTLET    
S35_A_R_         0.014      0.15       2.54       5          0          OUTLET    
S36_G_R_         0.014      0.15       2.54       5          0          OUTLET    
S36_H_R_         0.014      0.15       1.27       5          0          OUTLET    
S36_A_R_         0.014      0.15       2.54       5          0          OUTLET    
S37_G_R_         0.014      0.15       2.54       5          0          OUTLET    
S37_H_R_         0.014      0.15       1.27       5          0          OUTLET    
S37_A_R_         0.014      0.15       2.54       5          0          OUTLET    
S38_G_R_         0.014      0.15       2.54       5          0          OUTLET    
S38_H_R_         0.014      0.15       1.27       5          0          OUTLET    
S38_A_R_         0.014      0.15       2.54       5          0          OUTLET    
S39_G_R_         0.014      0.15       2.54       5          0          OUTLET    
S39_H_R_         0.014      0.15       1.27       5          0          OUTLET    
S39_A_R_         0.014      0.15       2.54       5          0          OUTLET    
S4_G_R_          0.014      0.15       2.54       5          0          OUTLET    
S4_H_R_          0.014      0.15       1.27       5          0          OUTLET    
S4_A_R_          0.014      0.15       2.54       5          0          OUTLET    
S40_G_R_         0.014      0.15       2.54       5          0          OUTLET    
S40_H_R_         0.014      0.15       1.27       5          0          OUTLET    
S40_A_R_         0.014      0.15       2.54       5          0          OUTLET    
S41_G_R_         0.014      0.15       2.54       5          0          OUTLET    
S41_H_R_         0.014      0.15       1.27       5          0          OUTLET    
S41_A_R_         0.014      0.15       2.54       5          0          OUTLET    
S42_G_R_         0.014      0.15       2.54       5          0          OUTLET    
S42_H_R_         0.014      0.15       1.27       5          0          OUTLET    
S42_A_R_         0.014      0.15       2.54       5          0          OUTLET    
S43_G_R_         0.014      0.15       2.54       5          0          OUTLET    
S43_H_R_         0.014      0.15       1.27       5          0          OUTLET    
S43_A_R_         0.014      0.15       2.54       5          0          OUTLET    
S44_G_R_         0.014      0.15       2.54       5          0          OUTLET    
S44_H_R_         0.014      0.15       1.27       5          0          OUTLET    
S44_A_R_         0.014      0.15       2.54       5          0          OUTLET    
S45_G_R_         0.014      0.15       2.54       5          0          OUTLET    
S45_H_R_         0.014      0.15       1.27       5          0          OUTLET    
S45_A_R_         0.014      0.15       2.54       5          0          OUTLET    
S5_G_R_          0.014      0.15       2.54       5          0          OUTLET    
S5_H_R_          0.014      0.15       1.27       5          0          OUTLET    
S5_A_R_          0.014      0.15       2.54       5          0          OUTLET    
S6_G_R_          0.014      0.15       2.54       5          0          OUTLET    
S6_H_R_          0.014      0.15       1.27       5          0          OUTLET    
S6_A_R_          0.014      0.15       2.54       5          0          OUTLET    
S7_G_R_          0.014      0.15       2.54       5          0          OUTLET    
S7_H_R_          0.014      0.15       1.27       5          0          OUTLET    
S7_A_R_          0.014      0.15       2.54       5          0          OUTLET    
S8_G_R_          0.014      0.15       2.54       5          0          OUTLET    
S8_H_R_          0.014      0.15       1.27       5          0          OUTLET    
S8_A_R_          0.014      0.15       2.54       5          0          OUTLET    
S9_G_R_          0.014      0.15       2.54       5          0          OUTLET    
S9_H_R_          0.014      0.15       1.27       5          0          OUTLET    
S9_A_R_          0.014      0.15       2.54       5          0          OUTLET    
V_1              0.013      0.15       1.9        5          0          OUTLET    
V_10             0.013      0.15       1.9        5          0          OUTLET    
V_11             0.013      0.15       1.9        5          0          OUTLET    
V_12             0.013      0.15       1.9        5          0          OUTLET    